56
This is (probably) from an cryoem image (EMD-0065) -> ML model -> mean shift clustered into fewer nodes. Its fitted pdb is 6gtg.pdb.
  C        101.529        125.069        73.9281
  C        95.9919        127.487        75.3662
  C        106.945        123.119        75.7817
  C        91.4445        130.184        77.8905
  C        110.676        122.853        80.0505
  C        89.2023        133.921        81.3088
  C        102.747        108.952        82.6871
  C        97.6074        111.544        82.8692
  C        107.900        107.447        84.1755
  C        94.1944        115.626        84.3288
  C        86.3290        138.115        84.1497
  C        112.290        123.256        85.4440
  C        112.194        106.925        88.0120
  C        101.783        98.8513        90.6888
  C        98.3159        103.771        91.2178
  C        110.011        123.347        90.9971
  C        106.016        94.4082        92.3676
  C        115.175        107.612        93.2428
  C        96.5120        109.089        93.0118
  C        102.631        133.088        93.3335
  C        98.4517        114.383        95.2227
  C        106.180        121.959        95.0496
  C        101.991        119.060        96.5820
  C        109.450        91.6227        96.9766
  C        115.016        60.2451        98.5548
  C        92.7817        89.1510        99.5254
  C        113.819        107.751        99.0789
  C        110.824        57.2303        101.410
  C        96.0932        83.6503        101.225
  C        91.7312        95.2114        101.274
  C        101.653        63.0844        101.551
  C        111.176        90.7883        102.088
  C        98.6991        79.9581        104.672
  C        110.232        107.738        104.114
  C        117.966        70.9137        104.964
  C        94.5780        100.222        105.027
  C        120.545        45.9929        106.899
  C        104.378        107.996        107.007
  C        110.762        91.2612        108.143
  C        119.321        46.9236        110.625
  C        107.662        93.4099        112.945
  C        102.880        94.8024        115.368
  C        97.0084        94.5179        118.053
  C        105.607        108.759        119.281
  C        108.926        103.872        119.857
  C        103.880        113.181        121.975
  C        111.167        98.7644        122.984
  C        93.5821        100.621        126.210
  C        102.919        116.330        126.749
  C        111.907        109.588        127.078
  C        109.813        98.1548        127.760
  C        112.944        104.026        128.358
  C        94.9719        102.655        131.740
  C        110.424        101.257        136.152
  C        104.141        102.173        136.463
  C        98.6274        103.502        135.928